**Full adder carry
.subckt Fcarry a b c f 
.inc .\Hcarry.NET
XHcarry1 a b c1 Hcarry
XHcarry2 c1 c f Hcarry
.ends