**Mux accurate half adder Carry
.subckt muxcarry a b carry 
.inc .\ntimux.NET
.inc .\ptimux.NET
*.inc .\nti_gate.NET
*.inc .\pti_gate.NET

Xntimux1 a GND VDD2 f4 ntimux
Xptimux1 a GND VDD2 f5 ptimux
Xntimux2 b GND f5 f6 ntimux
Xptimux2 b f6 f4 carry ptimux


.ends