.inc .\x1.net
.inc .\x2.net
.inc .\encoder3.net
.subckt adder IN_A IN_B OUT_HA

Xx11 IN_A IN_B w1 x1
Xorpx221 IN_A IN_B w2 x2

Xencoder w1 w2 OUT_HA encoder3



.ends