** Accurate Product
.inc .\ptimux.NET
.inc .\ntimux.NET


.subckt Product a b f 

Xptimux1 a VDD VDD2 c ptimux
Xntimux1 a Gnd c d ntimux
Xptimux2 b a d e ptimux
Xntimux2 b Gnd e f ntimux

.ends