.subckt nti_gate IN_NTI OUT_NTI
* nFET
XCNT3 OUT_NTI IN_NTI GND GND NCNFET Lch=Lg  Lgeff='Lgef' Lss=32e-9  Ldd=32e-9
+ Kgate='Kox' Tox='Hox' Csub='Cb' Vfbn='Vfn' Dout=0  Sout=0  Pitch=20e-9  n1=m1  n2=0  tubes=3

* pFET
XCNT8 OUT_NTI IN_NTI VDD VDD PCNFET Lch=Lg  Lgeff='Lgef' Lss=32e-9  Ldd=32e-9
+ Kgate='Kox' Tox='Hox' Csub='Cb' Vfbp='Vfp' Dout=0  Sout=0  Pitch=20e-9  n1=m2  n2=0  tubes=3

.ends
